2214277
  Spartan 03012410483D

 25 26  0  0  0  0  0  0  0  0999 V2000
    9.2335    6.5922    4.9898 Cl  0  0  0  0  0  0  0  0  0  0  0  0
    8.4752    0.4448    5.5965 Cl  0  0  0  0  0  0  0  0  0  0  0  0
    9.1624    1.9404    3.0634 O   0  0  0  0  0  0  0  0  0  0  0  0
    9.8328    5.6483    8.1107 O   0  0  0  0  0  0  0  0  0  0  0  0
    9.0847    4.8756    5.1914 C   0  0  0  0  0  0  0  0  0  0  0  0
    9.2094    4.0692    4.0690 C   0  0  0  0  0  0  0  0  0  0  0  0
    9.4191    4.4454    3.2451 H   0  0  0  0  0  0  0  0  0  0  0  0
    9.0190    2.6885    4.1812 C   0  0  0  0  0  0  0  0  0  0  0  0
    8.6970    2.1497    5.4338 C   0  0  0  0  0  0  0  0  0  0  0  0
    8.5639    2.9684    6.5457 C   0  0  0  0  0  0  0  0  0  0  0  0
    8.3291    2.5982    7.3655 H   0  0  0  0  0  0  0  0  0  0  0  0
    8.7788    4.3405    6.4432 C   0  0  0  0  0  0  0  0  0  0  0  0
    8.7839    5.1407    7.7137 C   0  0  0  0  0  0  0  0  0  0  0  0
    7.5331    5.2347    8.4891 C   0  0  0  0  0  0  0  0  0  0  0  0
    6.3042    5.0446    7.8562 C   0  0  0  0  0  0  0  0  0  0  0  0
    6.2751    4.8322    6.9505 H   0  0  0  0  0  0  0  0  0  0  0  0
    5.1227    5.1724    8.5796 C   0  0  0  0  0  0  0  0  0  0  0  0
    4.3025    5.0678    8.1547 H   0  0  0  0  0  0  0  0  0  0  0  0
    5.1716    5.4573    9.9367 C   0  0  0  0  0  0  0  0  0  0  0  0
    4.3818    5.5303   10.4223 H   0  0  0  0  0  0  0  0  0  0  0  0
    6.3959    5.6354   10.5757 C   0  0  0  0  0  0  0  0  0  0  0  0
    6.4206    5.8156   11.4877 H   0  0  0  0  0  0  0  0  0  0  0  0
    7.5785    5.5451    9.8578 C   0  0  0  0  0  0  0  0  0  0  0  0
    8.3947    5.6887   10.2791 H   0  0  0  0  0  0  0  0  0  0  0  0
    8.7804    1.2270    3.1662 H   0  0  0  0  0  0  0  0  0  0  0  0
  1  5  1  0  0  0  0
  2  9  1  0  0  0  0
  3  8  1  0  0  0  0
  3 25  1  0  0  0  0
  4 13  2  0  0  0  0
  5  6  1  0  0  0  0
  5 12  2  0  0  0  0
  6  7  1  0  0  0  0
  6  8  2  0  0  0  0
  8  9  1  0  0  0  0
  9 10  2  0  0  0  0
 10 11  1  0  0  0  0
 10 12  1  0  0  0  0
 12 13  1  0  0  0  0
 13 14  1  0  0  0  0
 14 15  1  0  0  0  0
 14 23  2  0  0  0  0
 15 16  1  0  0  0  0
 15 17  2  0  0  0  0
 17 18  1  0  0  0  0
 17 19  1  0  0  0  0
 19 20  1  0  0  0  0
 19 21  2  0  0  0  0
 21 22  1  0  0  0  0
 21 23  1  0  0  0  0
 23 24  1  0  0  0  0
M  END
$$$$
