
 OpenBabel01032510093D

 28 29  0  0  1  0  0  0  0  0999 V2000
    0.8294   -1.7494    0.1871 C   0  0  0  0  0  0  0  0  0  0  0  0
    2.2759   -1.8693    0.5562 C   0  0  0  0  0  0  0  0  0  0  0  0
    2.7440   -2.7230    1.2963 O   0  0  0  0  0  0  0  0  0  0  0  0
    3.0296   -0.9076   -0.0500 O   0  0  0  0  0  0  0  0  0  0  0  0
    4.4502   -1.0965    0.0875 C   0  0  3  0  0  0  0  0  0  0  0  0
    4.9390   -0.8616    1.5377 C   0  0  0  0  0  0  0  0  0  0  0  0
    5.9196    0.3108    1.5426 N   0  3  3  0  0  0  0  0  0  0  0  0
    5.2380    1.5679    1.0459 C   0  0  0  0  0  0  0  0  0  0  0  0
    4.8299    1.3475   -0.4109 C   0  0  0  0  0  0  0  0  0  0  0  0
    5.1554   -0.0934   -0.8539 C   0  0  3  0  0  0  0  0  0  0  0  0
    6.6741   -0.2997   -0.7278 C   0  0  0  0  0  0  0  0  0  0  0  0
    7.1387   -0.0087    0.7014 C   0  0  0  0  0  0  0  0  0  0  0  0
    0.2217   -1.7709    1.0943 H   0  0  0  0  0  0  0  0  0  0  0  0
    0.5568   -2.5721   -0.4771 H   0  0  0  0  0  0  0  0  0  0  0  0
    0.6391   -0.8022   -0.3270 H   0  0  0  0  0  0  0  0  0  0  0  0
    4.6972   -2.1183   -0.2304 H   0  0  0  0  0  0  0  0  0  0  0  0
    5.4912   -1.7259    1.9213 H   0  0  0  0  0  0  0  0  0  0  0  0
    4.1375   -0.6045    2.2373 H   0  0  0  0  0  0  0  0  0  0  0  0
    6.2240    0.4679    2.5133 H   0  0  0  0  0  0  0  0  0  0  0  0
    5.9485    2.3939    1.1553 H   0  0  0  0  0  0  0  0  0  0  0  0
    4.3762    1.7528    1.6954 H   0  0  0  0  0  0  0  0  0  0  0  0
    5.3596    2.0633   -1.0517 H   0  0  0  0  0  0  0  0  0  0  0  0
    3.7623    1.5639   -0.5326 H   0  0  0  0  0  0  0  0  0  0  0  0
    4.8238   -0.2412   -1.8875 H   0  0  0  0  0  0  0  0  0  0  0  0
    7.2070    0.3537   -1.4287 H   0  0  0  0  0  0  0  0  0  0  0  0
    6.9407   -1.3276   -1.0019 H   0  0  0  0  0  0  0  0  0  0  0  0
    7.8070    0.8574    0.7495 H   0  0  0  0  0  0  0  0  0  0  0  0
    7.6386   -0.8695    1.1570 H   0  0  0  0  0  0  0  0  0  0  0  0
  1  2  1  0  0  0  0
  1 13  1  0  0  0  0
  1 14  1  0  0  0  0
  1 15  1  0  0  0  0
  2  3  2  0  0  0  0
  2  4  1  0  0  0  0
  4  5  1  0  0  0  0
  5  6  1  0  0  0  0
  5 10  1  0  0  0  0
  5 16  1  0  0  0  0
  6  7  1  0  0  0  0
  6 17  1  0  0  0  0
  6 18  1  0  0  0  0
  7  8  1  0  0  0  0
  7 12  1  0  0  0  0
  7 19  1  0  0  0  0
  8  9  1  0  0  0  0
  8 20  1  0  0  0  0
  8 21  1  0  0  0  0
  9 10  1  0  0  0  0
  9 22  1  0  0  0  0
  9 23  1  0  0  0  0
 10 11  1  0  0  0  0
 10 24  1  0  0  0  0
 11 12  1  0  0  0  0
 11 25  1  0  0  0  0
 11 26  1  0  0  0  0
 12 27  1  0  0  0  0
 12 28  1  0  0  0  0
M  CHG  1   7   1
M  END
$$$$
