
 OpenBabel01032510113D

 31 32  0  0  1  0  0  0  0  0999 V2000
    2.6897   -2.1390   -0.3056 C   0  0  0  0  0  0  0  0  0  0  0  0
    2.1164   -0.9301    0.4287 C   0  0  0  0  0  0  0  0  0  0  0  0
    2.7702   -0.6282    1.7829 C   0  0  3  0  0  0  0  0  0  0  0  0
    2.4935   -1.7081    2.8017 C   0  0  0  0  0  0  0  0  0  0  0  0
    2.7219   -2.8996    2.6557 O   0  0  0  0  0  0  0  0  0  0  0  0
    1.9669   -1.1921    3.9363 O   0  0  0  0  0  0  0  0  0  0  0  0
    2.0220    0.2284    3.9146 C   0  0  0  0  0  0  0  0  0  0  0  0
    2.3001    0.6638    2.4848 C   0  0  3  0  0  0  0  0  0  0  0  0
    1.0950    1.4159    1.8704 C   0  0  0  0  0  0  0  0  0  0  0  0
    0.8922    2.7866    2.4531 C   0  0  0  0  0  0  0  0  0  0  0  0
    1.7813    3.8432    2.5549 C   0  0  0  0  0  0  0  0  0  0  0  0
    1.1949    4.9482    3.1048 N   0  0  0  0  0  0  0  0  0  0  0  0
   -0.0517    4.6032    3.3171 C   0  0  0  0  0  0  0  0  0  0  0  0
   -0.2860    3.3070    2.9389 N   0  0  0  0  0  0  0  0  0  0  0  0
   -1.5832    2.6766    3.0265 C   0  0  0  0  0  0  0  0  0  0  0  0
    2.1956   -2.2468   -1.2776 H   0  0  0  0  0  0  0  0  0  0  0  0
    2.5244   -3.0723    0.2382 H   0  0  0  0  0  0  0  0  0  0  0  0
    3.7632   -2.0248   -0.4844 H   0  0  0  0  0  0  0  0  0  0  0  0
    1.0401   -1.0907    0.5600 H   0  0  0  0  0  0  0  0  0  0  0  0
    2.2471   -0.0683   -0.2346 H   0  0  0  0  0  0  0  0  0  0  0  0
    3.8617   -0.5755    1.6666 H   0  0  0  0  0  0  0  0  0  0  0  0
    2.8218    0.5439    4.5934 H   0  0  0  0  0  0  0  0  0  0  0  0
    1.0753    0.6098    4.3104 H   0  0  0  0  0  0  0  0  0  0  0  0
    3.1484    1.3616    2.4991 H   0  0  0  0  0  0  0  0  0  0  0  0
    0.1862    0.8106    1.9518 H   0  0  0  0  0  0  0  0  0  0  0  0
    1.2781    1.5792    0.8017 H   0  0  0  0  0  0  0  0  0  0  0  0
    2.8191    3.8649    2.2479 H   0  0  0  0  0  0  0  0  0  0  0  0
   -0.8181    5.2480    3.7290 H   0  0  0  0  0  0  0  0  0  0  0  0
   -2.3236    3.4120    3.3581 H   0  0  0  0  0  0  0  0  0  0  0  0
   -1.5269    1.8639    3.7540 H   0  0  0  0  0  0  0  0  0  0  0  0
   -1.8634    2.3061    2.0381 H   0  0  0  0  0  0  0  0  0  0  0  0
  1  2  1  0  0  0  0
  1 16  1  0  0  0  0
  1 17  1  0  0  0  0
  1 18  1  0  0  0  0
  2  3  1  0  0  0  0
  2 19  1  0  0  0  0
  2 20  1  0  0  0  0
  3  4  1  0  0  0  0
  3  8  1  0  0  0  0
  3 21  1  0  0  0  0
  4  5  2  0  0  0  0
  4  6  1  0  0  0  0
  6  7  1  0  0  0  0
  7  8  1  0  0  0  0
  7 22  1  0  0  0  0
  7 23  1  0  0  0  0
  8  9  1  0  0  0  0
  8 24  1  0  0  0  0
  9 10  1  0  0  0  0
  9 25  1  0  0  0  0
  9 26  1  0  0  0  0
 10 11  2  0  0  0  0
 10 14  1  0  0  0  0
 11 12  1  0  0  0  0
 11 27  1  0  0  0  0
 12 13  2  0  0  0  0
 13 14  1  0  0  0  0
 13 28  1  0  0  0  0
 14 15  1  0  0  0  0
 15 29  1  0  0  0  0
 15 30  1  0  0  0  0
 15 31  1  0  0  0  0
M  END
$$$$
