
 OpenBabel01032510083D

 24 24  0  0  0  0  0  0  0  0999 V2000
    1.2027   -0.4441   -0.6953 C   0  0  0  0  0  0  0  0  0  0  0  0
    2.6364   -0.4094   -0.7224 O   0  0  0  0  0  0  0  0  0  0  0  0
    3.1442    0.8455   -0.8536 C   0  0  0  0  0  0  0  0  0  0  0  0
    2.4831    1.8726   -0.9625 O   0  0  0  0  0  0  0  0  0  0  0  0
    4.6351    0.8035   -0.8460 C   0  0  0  0  0  0  0  0  0  0  0  0
    5.2859    1.9769   -0.8859 C   0  0  0  0  0  0  0  0  0  0  0  0
    6.7735    2.0569   -0.8871 C   0  0  0  0  0  0  0  0  0  0  0  0
    7.5043    0.7076   -0.9952 C   0  0  0  0  0  0  0  0  0  0  0  0
    6.7918   -0.5156   -0.6292 N   0  0  0  0  0  0  0  0  0  0  0  0
    5.3346   -0.5212   -0.7976 C   0  0  0  0  0  0  0  0  0  0  0  0
    7.2389   -1.1159    0.6159 C   0  0  0  0  0  0  0  0  0  0  0  0
    0.8968   -1.4683   -0.4642 H   0  0  0  0  0  0  0  0  0  0  0  0
    0.7999   -0.1727   -1.6754 H   0  0  0  0  0  0  0  0  0  0  0  0
    0.8064    0.2154    0.0835 H   0  0  0  0  0  0  0  0  0  0  0  0
    4.7398    2.9209   -0.9236 H   0  0  0  0  0  0  0  0  0  0  0  0
    7.0834    2.5699    0.0306 H   0  0  0  0  0  0  0  0  0  0  0  0
    7.0863    2.6885   -1.7256 H   0  0  0  0  0  0  0  0  0  0  0  0
    8.4469    0.7939   -0.4365 H   0  0  0  0  0  0  0  0  0  0  0  0
    7.8206    0.5847   -2.0392 H   0  0  0  0  0  0  0  0  0  0  0  0
    4.8803   -1.1261   -0.0018 H   0  0  0  0  0  0  0  0  0  0  0  0
    5.1210   -1.0478   -1.7347 H   0  0  0  0  0  0  0  0  0  0  0  0
    8.3289   -1.2317    0.6238 H   0  0  0  0  0  0  0  0  0  0  0  0
    6.8339   -2.1306    0.7157 H   0  0  0  0  0  0  0  0  0  0  0  0
    6.9409   -0.5311    1.4907 H   0  0  0  0  0  0  0  0  0  0  0  0
  1  2  1  0  0  0  0
  1 12  1  0  0  0  0
  1 13  1  0  0  0  0
  1 14  1  0  0  0  0
  2  3  1  0  0  0  0
  3  4  2  0  0  0  0
  3  5  1  0  0  0  0
  5  6  2  0  0  0  0
  5 10  1  0  0  0  0
  6  7  1  0  0  0  0
  6 15  1  0  0  0  0
  7  8  1  0  0  0  0
  7 16  1  0  0  0  0
  7 17  1  0  0  0  0
  8  9  1  0  0  0  0
  8 18  1  0  0  0  0
  8 19  1  0  0  0  0
  9 10  1  0  0  0  0
  9 11  1  0  0  0  0
 10 20  1  0  0  0  0
 10 21  1  0  0  0  0
 11 22  1  0  0  0  0
 11 23  1  0  0  0  0
 11 24  1  0  0  0  0
M  END
$$$$
